$rungauss
%nprocs=4
%chk=Mo2P2.chk
%mem=1300Mb
#b3lyp/gen pseudo=read opt freq

Mo2P2 Def2SVP

0 1
42       1.546765000      0.078822000      0.030094000
42      -1.546984000     -0.079047000      0.029774000
15       0.141107000     -1.034867000      1.757351000
15      -0.141067000      1.025672000      1.762769000
6        3.270524000     -1.471824000     -0.413286000
1        3.923563000     -1.816618000      0.371676000
6        3.476965000     -0.317249000     -1.227864000
1        4.318947000      0.353094000     -1.181150000
6        2.403884000     -0.252659000     -2.157512000
1        2.281970000      0.491842000     -2.927459000
6        1.547592000     -1.356364000     -1.923876000
1        0.663008000     -1.600453000     -2.485764000
6        2.081116000     -2.107449000     -0.841520000
1        1.662621000     -3.012830000     -0.435765000
6       -3.476562000      0.323734000     -1.227006000
1       -4.318538000     -0.346894000     -1.184436000
6       -2.403096000      0.264406000     -2.156571000
1       -2.280742000     -0.475797000     -2.930590000
6       -1.547082000      1.366934000     -1.916608000
1       -0.662499000      1.614394000     -2.477059000
6       -2.081092000      2.111969000     -0.830304000
1       -1.662989000      3.015236000     -0.419462000
6       -3.270595000      1.473853000     -0.406045000
1       -3.924080000      1.814311000      0.380439000
8        3.476992000      1.037483000      2.304253000
8        1.214850000      3.083379000     -0.791439000
8       -3.477105000     -1.049829000      2.298875000
8       -1.214795000     -3.079328000     -0.807527000
6        2.727094000      0.703982000      1.502688000
6        1.291522000      1.985222000     -0.450432000
6       -2.727285000     -0.711976000      1.499060000
6       -1.291689000     -1.983010000     -0.460719000

H     0
S    3   1.00
     13.0107010              0.19682158D-01
      1.9622572              0.13796524
      0.44453796             0.47831935
S    1   1.00
      0.12194962             1.0000000
P    1   1.00
      0.8000000              1.0000000
****
C     0
S    5   1.00
   1238.4016938              0.54568832082D-02
    186.29004992             0.40638409211D-01
     42.251176346            0.18025593888
     11.676557932            0.46315121755
      3.5930506482           0.44087173314
S    1   1.00
      0.40245147363          1.0000000
S    1   1.00
      0.13090182668          1.0000000
P    3   1.00
      9.4680970621           0.38387871728D-01
      2.0103545142           0.21117025112
      0.54771004707          0.51328172114
P    1   1.00
      0.15268613795          1.0000000
D    1   1.00
      0.8000000              1.0000000
****
O     0
S    5   1.00
   2266.1767785             -0.53431809926D-02
    340.87010191            -0.39890039230D-01
     77.363135167           -0.17853911985
     21.479644940           -0.46427684959
      6.6589433124          -0.44309745172
S    1   1.00
      0.80975975668          1.0000000
S    1   1.00
      0.25530772234          1.0000000
P    3   1.00
     17.721504317            0.43394573193D-01
      3.8635505440           0.23094120765
      1.0480920883           0.51375311064
P    1   1.00
      0.27641544411          1.0000000
D    1   1.00
      1.2000000              1.0000000
****
P     0
S    5   1.00
   8002.4795106              0.57503489302D-02
   1203.6813590              0.43007628959D-01
    273.44227031             0.19363986252
     76.655541517            0.49651693399
     23.516927435            0.44983262479
S    3   1.00
     39.791683439            0.95188129789D-01
      4.2770343323          -0.57649840368
      1.6940256888          -0.54239583865
S    1   1.00
      0.27567674644          1.0000000
S    1   1.00
      0.10495590099          1.0000000
P    5   1.00
    219.50755823             0.92100565257D-02
     51.274155030            0.65409765745D-01
     15.921595892            0.24033730279
      5.5069913481           0.46318321788
      1.9537719426           0.37392563382
P    1   1.00
      0.47803397932          1.0000000
P    1   1.00
      0.13657952621          1.0000000
D    1   1.00
      0.4500000              1.0000000
****
Mo     0
S    3   1.00
      7.2033800000          -0.89310617237
      5.0522950000           1.6074095756
      2.9135330000           0.27804186088
S    1   1.00
      0.97858218681          1.0000000
S    1   1.00
      0.44369153753          1.0000000
S    1   1.00
      0.92150090705D-01      1.0000000
S    1   1.00
      0.34802246935D-01      1.0000000
P    4   1.00
      3.1518660000          -0.71873040872
      2.4534820000           0.76442887870
      0.85030192180          0.64808585640
      0.36918237179          0.26792115234
P    1   1.00
      0.13490627460          1.0000000
P    1   1.00
      0.38200000000D-01      1.0000000
D    4   1.00
      5.0044445497          -0.21587364862D-01
      1.7736823324           0.20958680086
      0.76950591696          0.43730880599
      0.31530878939          0.41123927009
D    1   1.00
      0.11754374390          1.0000000
F    1   1.00
      0.6554500              1.0000000
****

MO     0
MO-ECP     3     28
f potential
  2
2      9.4500000            -24.80517707
2      4.7200000             -4.15378155
s-f potential
  4
2      9.7145938            180.10310850
2      4.6805004             24.99722791
2      9.4500000             24.80517707
2      4.7200000              4.15378155
p-f potential
  4
2      8.1421366            123.77275231
2      4.6259863             19.53022800
2      9.4500000             24.80517707
2      4.7200000              4.15378155
d-f potential
  4
2      6.6184148             48.37502229
2      3.2487516              8.89205274
2      9.4500000             24.80517707
2      4.7200000              4.15378155



