%nprocs=4
%chk=bipyrimidine_PCM.chk
%mem=8192Mb
#b3lyp/gen SCRF=CPCM, SCRF=(solvent=Dichloromethane)

bipyrimidine_PCM

0 1
6        0.749493254     -0.000061824      0.000877709
6       -0.749493254      0.000061840      0.000877720
7       -1.353059012     -1.096543760      0.466481577
6       -2.684915438     -1.083162005      0.467613101
6       -3.416813225     -0.000162330     -0.000478122
6       -2.684648717      1.083030160     -0.467615710
7       -1.352764398      1.096640858     -0.465066621
1       -3.175115306     -1.969109401      0.856312762
1       -4.497817409     -0.000294768     -0.001091873
1       -3.174552960      1.968913981     -0.856832821
7        1.352764393     -1.096640842     -0.465066637
7        1.353059023      1.096543775      0.466481562
6        2.684648711     -1.083030160     -0.467615710
6        2.684915448      1.083162005      0.467613096
1        3.174552938     -1.968913987     -0.856832821
1        3.175115322      1.969109401      0.856312756
6        3.416813225      0.000162320     -0.000478112
1        4.497817409      0.000294741     -0.001091851
