$rungauss
%nprocs=8
%chk=psh132_asym_wB97XD_Def2SVP.chk
%mem=8192Mb
#wB97XD/gen Integral(UltraFine) pseudo=read opt=tight Sym=None

psh132_asym_wB97XD_Def2SVP

2 1
42       5.686800000     -0.353500000     20.716500000
42       6.534700000      2.090500000     19.013400000
42       5.137800000      1.324300000     13.035500000
42       2.824600000     -0.730100000     12.769600000
33       6.688500000     -0.509400000     17.954200000
51       4.409400000      0.645700000     18.766100000
29       4.285600000     -0.828600000     16.738200000
29       2.519300000      1.062700000     17.176500000
8        4.410800000      3.795900000     20.571300000
8        4.754000000     -3.254100000     19.983300000
8        8.640500000     -1.412300000     20.624100000
8        5.304300000      3.400500000     16.465100000
7        3.419900000     -2.564200000     17.196100000
6        7.586400000     -1.020700000     20.608600000
6        5.164400000      3.123000000     19.989600000
7        2.142800000      3.003200000     17.217900000
6        5.107100000     -2.191600000     20.182400000
6        5.722300000      2.858800000     17.382800000
6        5.405800000     -1.081500000     22.860800000
1        5.624000000     -1.978800000     23.084400000
6        2.000300000      4.132300000     17.158800000
6        8.041900000      3.240800000     20.313100000
1        7.753800000      3.620100000     21.134800000
8        0.449600000      1.478800000     13.276600000
8        7.456200000      1.366700000     14.925300000
6        6.268200000      0.028500000     22.926100000
1        7.178400000      0.004200000     23.198300000
6        7.982700000      3.868100000     19.050100000
1        7.670700000      4.748200000     18.877300000
6        3.041800000     -3.611500000     17.417000000
8        6.921500000     -0.423900000     11.155100000
6        5.573800000      1.165200000     22.527900000
1        5.921500000      2.049800000     22.492500000
6        8.603000000      1.959700000     20.148200000
1        8.780200000      1.339700000     20.844600000
6        3.675000000      3.246500000     12.981100000
1        2.960200000      3.406300000     13.588000000
6        4.143200000     -0.610200000     22.391000000
1        3.369100000     -1.141500000     22.247900000
6        3.488300000      2.583200000     11.749200000
1        2.716600000      2.158800000     11.390200000
6        6.545200000      1.302000000     14.253400000
6        8.464100000      2.957600000     18.092000000
1        8.522500000      3.110500000     17.157100000
6        1.278900000      0.720400000     13.167700000
6        8.854700000      1.752500000     18.782600000
1        9.215600000      0.967700000     18.389100000
6        4.240500000      0.766000000     22.182600000
1        3.550100000      1.336200000     21.865900000
6        6.143600000      0.095000000     11.851900000
6        4.778000000      2.735200000     11.201700000
1        4.983200000      2.496000000     10.305900000
8        1.404100000     -2.691500000     14.779100000
7        0.973300000     -0.266100000     17.183700000
6        1.807200000      5.554100000     17.043700000
1        1.027700000      5.733400000     16.477300000
1        2.603200000      5.960500000     16.642500000
1        1.658600000      5.935400000     17.934100000
6        5.005700000      3.653300000     13.248600000
1        5.337600000      4.085700000     14.025400000
6        5.740900000      3.265500000     12.079000000
1        6.676200000      3.350400000     11.930500000
6        1.932100000     -0.556900000     10.651100000
1        1.385300000      0.190100000     10.436800000
6        1.514600000     -1.879900000     11.229700000
1        0.624300000     -2.166300000     11.400200000
6        3.415000000     -0.701400000     10.486300000
1        4.002200000     -0.063600000     10.096600000
6        2.600600000     -4.947700000     17.774700000
1        2.903500000     -5.586100000     17.095900000
1        1.620900000     -4.966100000     17.825100000
1        2.975500000     -5.194700000     18.645900000
6        1.987100000     -1.916000000     14.057400000
6       -0.770300000     -2.203000000     17.053000000
1       -1.124700000     -2.278200000     16.142700000
1       -1.507600000     -2.041200000     17.678400000
1       -0.314000000     -3.036100000     17.295700000
33       3.402400000      0.652000000     14.912800000
51       4.938400000     -1.281500000     14.186500000
6        3.780200000     -1.948300000     11.015100000
1        4.669700000     -2.283500000     11.044100000
6        2.687400000     -2.613600000     11.478600000
1        2.712900000     -3.459600000     11.909100000
6        0.172400000     -1.096800000     17.118400000
